20

 C    1.83000000   13.43000000  100.69000000
 C    1.83000000   12.25000000   99.87000000
 C    1.13000000   12.27000000   98.67000000
 C    0.35000000   13.39000000   98.30000000
 C    0.35000000   14.55000000   99.08000000
 C    1.17000000   14.63000000  100.19000000
 H    2.37000000   13.44000000  101.63000000
 H    2.23000000   11.31000000  100.25000000
 H   -0.32000000   13.34000000   97.45000000
 C    1.04000000   10.95000000   97.91000000
 H    0.55000000   11.07000000   96.94000000
 C    2.46000000   10.39000000   97.60000000
 H    2.30000000    9.52000000   96.95000000
 H    3.02000000    9.95000000   98.44000000
 H    1.23000000   15.49000000  100.84000000
 H   -0.18000000   15.41000000   98.70000000
 C    0.09000000   10.08000000   98.75000000
 H   -0.88000000   10.57000000   98.98000000
 H    3.07000000   11.13000000   97.07000000
 O    0.33000000    8.93000000   99.16000000